# Packages
 &PACKAGES
  useGMRedi=.FALSE.,
  useKPP=.TRUE.,
  useECCO=.TRUE.,
  useEXF=.TRUE., 
  useOBCS=.TRUE.,
  useDIAGNOSTICS=.TRUE., 
  useSEAICE=.FALSE.,
  usePTRACERS=.TRUE., 
 &
